@<TRIPOS>MOLECULE
*****
 19 19 0 0 0
SMALL
GASTEIGER

@<TRIPOS>ATOM
      1 C          -1.1639    1.2583    0.0062 C.3     1  UNL1       -0.0471
      2 C           0.2902    1.7204   -0.0845 C.3     1  UNL1        0.0213
      3 H          -1.4048    0.5768   -0.8370 H       1  UNL1        0.0247
      4 H          -1.8374    2.1394   -0.0486 H       1  UNL1        0.0247
      5 H          -1.3429    0.7365    0.9702 H       1  UNL1        0.0247
      6 N           1.2510    0.6132   -0.0196 N.ar    1  UNL1       -0.3385
      7 H           0.4916    2.4230    0.7528 H       1  UNL1        0.0489
      8 H           0.4301    2.2643   -1.0436 H       1  UNL1        0.0489
      9 C           1.0210   -0.7142    0.1056 C.ar    1  UNL1        0.0220
     10 C           2.5906    0.7529   -0.0777 C.ar    1  UNL1        0.0749
     11 C           2.2374   -1.3654    0.1215 C.ar    1  UNL1        0.0217
     12 H           0.0495   -1.1840    0.1803 H       1  UNL1        0.0824
     13 N           3.2088   -0.4407    0.0066 N.ar    1  UNL1       -0.3413
     14 H           3.1026    1.7022   -0.1791 H       1  UNL1        0.1010
     15 H           2.3998   -2.4319    0.2102 H       1  UNL1        0.0824
     16 C           4.6440   -0.6918   -0.0204 C.3     1  UNL1        0.0127
     17 H           5.2053    0.2614   -0.1238 H       1  UNL1        0.0456
     18 H           4.8920   -1.3490   -0.8801 H       1  UNL1        0.0456
     19 H           4.9536   -1.1898    0.9224 H       1  UNL1        0.0456
@<TRIPOS>BOND
     1     1     2    1
     2     1     3    1
     3     1     4    1
     4     1     5    1
     5     2     6    1
     6     2     7    1
     7     2     8    1
     8     6     9   ar
     9     6    10   ar
    10     9    11   ar
    11     9    12    1
    12    10    13   ar
    13    10    14    1
    14    11    13   ar
    15    11    15    1
    16    13    16    1
    17    16    17    1
    18    16    18    1
    19    16    19    1
