@<TRIPOS>MOLECULE
*****
 15 14 0 0 0
SMALL
GASTEIGER

@<TRIPOS>ATOM
      1 N           0.5085    0.5732    0.5413 N.3     1  UNL1        0.0775
      2 S           1.9207    1.2266   -0.2919 S.O2    1  UNL1        0.1638
      3 S          -0.9135    1.1962   -0.2984 S.O2    1  UNL1        0.1638
      4 C           3.7896    1.1131   -0.2110 C.3     1  UNL1        0.5387
      5 C          -2.7807    1.0638   -0.2085 C.3     1  UNL1        0.5387
      6 F          -3.3166    2.3305   -0.0342 F       1  UNL1       -0.1492
      7 F          -3.2730    0.2431    0.8098 F       1  UNL1       -0.1492
      8 F          -3.2601    0.5822   -1.4170 F       1  UNL1       -0.1492
      9 F           4.2947    0.2826    0.7929 F       1  UNL1       -0.1492
     10 F           4.2698    0.6555   -1.4285 F       1  UNL1       -0.1492
     11 F           4.3121    2.3828   -0.0191 F       1  UNL1       -0.1492
     12 O           2.1857   -0.2889   -0.3058 O.2     1  UNL1       -0.1468
     13 O           2.2271    1.5331    1.1842 O.2     1  UNL1       -0.1468
     14 O          -1.1611   -0.3222   -0.2875 O.2     1  UNL1       -0.1468
     15 O          -1.2187    1.5227    1.1737 O.2     1  UNL1       -0.1468
@<TRIPOS>BOND
     1     1     2    1
     2     1     3    1
     3     2     4    1
     4     3     5    1
     5     5     6    1
     6     5     7    1
     7     5     8    1
     8     4     9    1
     9     4    10    1
    10     4    11    1
    11     2    12    2
    12     2    13    2
    13     3    14    2
    14     3    15    2
